OPT_V9/My_campus_w_initial_sub_3_active_28_03_15_27/powerflow_results_t4.txt
Pandapower Network Debug Info
==================================================

BUS:
       vm_pu  va_degree      p_mw    q_mvar
0   1.001495  -0.203121  0.000994 -0.005920
1   1.002037  -0.201512  0.000024 -0.000416
2   1.002595  -0.176633 -0.000618  0.000000
3   1.000684  -0.239324  0.001216  0.000000
4   0.999761  -0.128188  0.001056 -0.000436
5   1.001696  -0.039176 -0.000004 -0.001199
6   1.002941  -0.022231 -0.001057 -0.000483
7   1.001858  -0.113081 -0.000441 -0.003237
8   1.000633  -0.040484 -0.001924 -0.004223
9   0.999909   0.000515  0.008603  0.011174
10  0.999897   0.000600  0.009717  0.009993
11  0.999888   0.000653  0.010522  0.010098
12  0.999855  -0.001333  0.010812  0.005426
13  0.999835  -0.001228  0.012388  0.010623
14  0.999823  -0.001214  0.015427  0.012523
15  0.999950   0.000126  0.000000  0.000000
16  0.999950   0.000122  0.000000  0.000000
17  0.999860  -0.001274  0.000000  0.000000
18  0.999860  -0.001279  0.000000  0.000000
19  1.000000   0.000000 -0.030502 -0.029949
20  1.000000   0.000004  0.000000  0.000000
21  1.000000   0.000000 -0.036298 -0.024012
22  1.000000   0.000003  0.000000  0.000000
--------------------------------------------------

LINE:
    p_from_mw   q_from_mvar   p_to_mw     q_to_mvar         pl_mw       ql_mvar  i_from_ka   i_to_ka      i_ka  vm_from_pu  va_from_degree  vm_to_pu  va_to_degree  loading_percent
0    0.030492  2.594906e-02 -0.030491 -2.594784e-02  1.568088e-06  1.222664e-06   0.001541  0.001541  0.001541    1.000000        0.000004  0.999950      0.000126         0.670049
1    0.036288  2.001156e-02 -0.036284 -2.000796e-02  4.619295e-06  3.601740e-06   0.001595  0.001595  0.001595    1.000000        0.000003  0.999860     -0.001274         0.693494
2    0.028844  3.126664e-02 -0.028842 -3.126555e-02  1.399446e-06  1.091171e-06   0.001637  0.001637  0.001637    0.999950        0.000126  0.999909      0.000515         0.711917
3    0.010812  5.426408e-03 -0.010812 -5.426368e-03  5.062247e-08  3.947117e-08   0.000466  0.000466  0.000466    0.999860       -0.001274  0.999855     -0.001333         0.202472
4    0.027816  2.314663e-02 -0.027816 -2.314608e-02  7.162369e-07  5.584617e-07   0.001393  0.001393  0.001393    0.999860       -0.001274  0.999835     -0.001228         0.605671
5    0.001637 -6.318653e-03 -0.001617  6.334192e-03  1.992939e-05  1.553927e-05   0.009422  0.009422  0.009422    0.999950        0.000122  1.001495     -0.203121         4.096428
6   -0.001057 -1.678288e-03  0.001060  1.680668e-03  3.053326e-06  2.380729e-06   0.002863  0.002863  0.002863    0.999860       -0.001279  1.001696     -0.039176         1.244969
7   -0.000434 -3.231805e-03  0.000441  3.237408e-03  7.185842e-06  5.602920e-06   0.004707  0.004707  0.004707    0.999860       -0.001279  1.001858     -0.113081         2.046648
8   -0.000863 -4.654663e-03  0.000867  4.657668e-03  3.854352e-06  3.005302e-06   0.006834  0.006834  0.006834    0.999860       -0.001279  1.000633     -0.040484         2.971269
9   -0.020239 -2.009150e-02  0.020239  2.009172e-02  2.813083e-07  2.193407e-07   0.001098  0.001098  0.001098    0.999897        0.000600  0.999909      0.000515         0.477293
10  -0.010522 -1.009803e-02  0.010522  1.009811e-02  1.040412e-07  8.112267e-08   0.000561  0.000561  0.000561    0.999888        0.000653  0.999897      0.000600         0.244084
11  -0.015427 -1.252335e-02  0.015427  1.252350e-02  1.931688e-07  1.506169e-07   0.000765  0.000765  0.000765    0.999823       -0.001214  0.999835     -0.001228         0.332587
12   0.000594  4.155728e-04 -0.000594 -4.153313e-04  3.097099e-07  2.414859e-07   0.001044  0.001044  0.001044    1.002037       -0.201512  1.001495     -0.203121         0.454052
13  -0.001216 -2.977827e-12  0.001217  7.692194e-07  9.865335e-07  7.692164e-07   0.001754  0.001754  0.001754    1.000684       -0.239324  1.001495     -0.203121         0.762820
14   0.000618  8.261606e-12 -0.000618  2.683978e-07  3.442355e-07  2.684061e-07   0.000890  0.000890  0.000890    1.002595       -0.176633  1.002037     -0.201512         0.387126
15   0.001057 -4.342733e-04 -0.001056  4.355109e-04  1.587222e-06  1.237583e-06   0.001649  0.001649  0.001649    1.000633       -0.040484  0.999761     -0.128188         0.716752
16   0.001057  4.829960e-04 -0.001056 -4.820843e-04  1.169167e-06  9.116190e-07   0.001673  0.001673  0.001673    1.002941       -0.022231  1.001696     -0.039176         0.727235
--------------------------------------------------

TRAFO:
    p_hv_mw  q_hv_mvar   p_lv_mw  q_lv_mvar    pl_mw  ql_mvar   i_hv_ka   i_lv_ka  vm_hv_pu  va_hv_degree  vm_lv_pu  va_lv_degree  loading_percent
0  0.001647  -0.005319 -0.001637   0.006319  0.00001    0.001  0.000214  0.009422   0.99995      0.000126   0.99995      0.000122         0.065276
1 -0.002345  -0.008565  0.002355   0.009565  0.00001    0.001  0.000342  0.014220   0.99986     -0.001274   0.99986     -0.001279         0.098517
2  0.030502   0.029949 -0.030492  -0.025949  0.00001    0.004  0.000353  0.001541   1.00000      0.000000   1.00000      0.000004         0.106869
3  0.036298   0.024012 -0.036288  -0.020012  0.00001    0.004  0.000359  0.001595   1.00000      0.000000   1.00000      0.000003         0.108804
--------------------------------------------------
